Version 4.1
SHEET 1 1260 800
WIRE 528 -32 352 -32
WIRE 656 -32 528 -32
WIRE 1072 -32 752 -32
WIRE 208 32 -128 32
WIRE 352 32 352 -32
WIRE 352 32 208 32
WIRE -128 48 -128 32
WIRE 208 64 208 32
WIRE 528 64 528 48
WIRE 672 64 672 16
WIRE 672 64 528 64
WIRE 528 80 528 64
WIRE 352 128 352 112
WIRE 400 128 352 128
WIRE 464 128 400 128
WIRE 400 144 400 128
WIRE 1072 176 1072 -32
WIRE 208 192 208 128
WIRE 224 192 208 192
WIRE 336 192 304 192
WIRE -128 272 -128 208
WIRE 208 272 -128 272
WIRE 400 272 400 240
WIRE 400 272 208 272
WIRE 528 272 528 176
WIRE 528 272 400 272
WIRE 1072 272 1072 256
WIRE 1072 272 528 272
WIRE 208 336 208 272
WIRE 720 448 704 448
WIRE 1200 448 816 448
WIRE 544 464 128 464
WIRE 672 464 544 464
WIRE 704 464 704 448
WIRE 704 464 672 464
WIRE 128 480 128 464
WIRE 544 480 544 464
WIRE 672 512 672 464
WIRE 1200 528 1200 448
WIRE 608 560 576 560
WIRE 544 576 544 560
WIRE 576 576 576 560
WIRE 576 576 544 576
WIRE 544 592 544 576
WIRE 736 608 736 496
WIRE 736 608 672 608
WIRE 128 704 128 640
WIRE 464 704 128 704
WIRE 544 704 544 656
WIRE 544 704 464 704
WIRE 672 704 672 688
WIRE 672 704 544 704
WIRE 1200 704 1200 608
WIRE 1200 704 672 704
WIRE 464 768 464 704
FLAG 208 336 0
FLAG 464 768 0
SYMBOL res 1056 160 R0
SYMATTR InstName R2
SYMATTR Value 0.5
SYMBOL voltage -128 112 R0
WINDOW 123 0 0 Left 0
WINDOW 39 0 0 Left 0
SYMATTR InstName V1
SYMATTR Value 5
SYMBOL voltage -128 32 R0
WINDOW 123 0 0 Left 0
WINDOW 39 0 0 Left 0
SYMATTR InstName V2
SYMATTR Value PULSE(0 5 0 100p 100p .25 .5)
SYMBOL res 336 16 R0
SYMATTR InstName R1
SYMATTR Value 1k
SYMBOL npn 336 144 R0
SYMATTR InstName Q1
SYMBOL diode 224 128 R180
WINDOW 0 24 64 Left 2
WINDOW 3 24 0 Left 2
SYMATTR InstName D1
SYMATTR Value BZX84C8V2L
SYMBOL res 320 176 R90
WINDOW 0 0 56 VBottom 2
WINDOW 3 32 56 VTop 2
SYMATTR InstName R3
SYMATTR Value 1k
SYMBOL npn 464 80 R0
SYMATTR InstName Q2
SYMBOL res 512 -48 R0
SYMATTR InstName R4
SYMATTR Value 10k
SYMBOL pmos 752 16 M270
SYMATTR InstName M1
SYMATTR Value Si7137DP
SYMBOL voltage 128 544 R0
WINDOW 123 0 0 Left 0
WINDOW 39 0 0 Left 0
SYMATTR InstName V5
SYMATTR Value 3.3
SYMBOL voltage 128 464 R0
WINDOW 123 0 0 Left 0
WINDOW 39 0 0 Left 0
SYMATTR InstName V6
SYMATTR Value PULSE(0 8.7 0 100p 100p .25 .5)
SYMBOL res 1184 512 R0
SYMATTR InstName R6
SYMATTR Value 5
SYMBOL pnp 608 608 M180
SYMATTR InstName Q3
SYMBOL diode 560 656 R180
WINDOW 0 24 64 Left 2
WINDOW 3 24 0 Left 2
SYMATTR InstName D2
SYMATTR Value BZX84C8V2L
SYMBOL res 656 592 R0
SYMATTR InstName R5
SYMATTR Value 2200
SYMBOL res 528 464 R0
SYMATTR InstName R7
SYMATTR Value 10k
SYMBOL pmos 816 496 M270
SYMATTR InstName M2
SYMATTR Value FDS4953
TEXT -72 352 Left 2 !.tran 1
